powerflow/Codes/PF_Formulation/resultados_csv/17/test_system/ramos.csv
caso,script,branch_id,f_bus,t_bus,pf_pu,qf_pu,pt_pu,qt_pu,loss_p_pu,loss_q_pu
test_system.pwf,17,1,24,26,-0.346,-0.06899999999997367,0.3472131826479675,5.53286552870437e-5,0.0012131826479675478,-0.06894467134468663
test_system.pwf,17,2,26,29,-0.34721318264796774,-5.5328655409456196e-5,0.34842624910575914,-0.06962540682255393,0.0012130664577914008,-0.06968073547796338
test_system.pwf,17,7,23,29,0.34842624910575903,-0.06175963261574324,-0.34842624910575903,0.06962540682252438,0.0,0.00786577420678114
